Circuit: * C:\Users\prita\Desktop\CHUA\chuacomplete.asc

Direct Newton iteration for .op point succeeded.

Date: Sun Nov 21 09:07:24 2021
Total elapsed time: 0.135 seconds.

tnom = 27
temp = 27
method = modified trap
totiter = 11461
traniter = 11451
tranpoints = 3978
accept = 2757
rejected = 1221
matrix size = 16
fillins = 4
solver = Normal
Matrix Compiler1: 1.28 KB object code size  0.2/0.2/[0.1]
Matrix Compiler2: off  [0.1]/0.3/0.3

